18
X X X
C -0.011216056 0.673124862 -0.011529976
C 0.010584153 -0.671849642 -0.012176194
C -1.193050712 -1.544694372 -0.010248754
C 1.192513401 1.545820800 -0.007791484
O 2.368242944 0.840524475 -0.001665590
O -2.368853625 -0.839544581 -0.002535229
O -1.131607785 -2.767523732 -0.013260150
O 1.131252522 2.768663009 -0.008830167
C -3.579951262 -1.658665724 0.006029144
C 3.579308199 1.659662831 0.007907323
H -0.949825241 1.221226603 -0.012724363
H 0.949257427 -1.219844100 -0.012230514
H -3.599627734 -2.296006429 0.896479526
H -3.617854207 -2.286542674 -0.890422546
H -4.405619539 -0.943420821 0.017744803
H 3.615081301 2.292672797 -0.885078139
H 4.405088289 0.944479058 0.014239016
H 3.600866659 2.291904358 0.901870522
