19
xxx
C -1.202 0.339 0.724
C -1.88 -0.947 0.197
C -0.837 -2.025 -0.167
C 0.216 -1.48 -1.156
C 0.883 -0.191 -0.626
C -0.159 0.878 -0.273
H -0.691 0.133 1.678
H -2.585 -1.332 0.949
H -1.336 -2.909 -0.592
H 0.985 -2.241 -1.353
H 1.587 0.219 -1.364
H -0.678 1.185 -1.201
H -1.959 1.114 0.926
H -2.481 -0.705 -0.695
H -0.331 -2.363 0.753
H -0.27 -1.272 -2.124
H 1.466 -0.415 0.282
O 0.568 2.021 0.264
H -0.088 2.704 0.493
