70
X X X
C -2.539497072 1.531889503 -1.587430297
C -1.377035966 2.318138693 -1.966435140
C -0.650908391 1.549591087 -2.964513927
C -1.371893567 0.313574074 -3.210183359
C -2.537532989 0.302756932 -2.358973037
C -1.370190377 -2.108536518 -3.238766285
C -0.648282518 -3.349256992 -3.022867017
C 0.747627260 -3.348494318 -3.024458984
C 1.467685948 -2.107005826 -3.241981668
C -2.970557632 1.515777690 -0.259326575
C -3.413872089 0.270247273 0.340816568
C -2.536046209 -2.119150427 -2.388106544
C -2.256515486 2.284865907 0.746441625
C -1.128509471 3.038175260 0.388079693
C -0.679699050 3.054925297 -0.997815292
C 0.745102403 1.550282456 -2.966061633
C 1.472781102 2.319600617 -1.969730253
C 0.776939974 3.055672519 -0.999504106
C 2.635636038 -2.116411776 -2.394184087
C 1.466837385 0.315074369 -3.213411560
C 2.639535372 -3.363712671 -1.652149549
C 1.476279021 -4.140993606 -2.047143149
C -1.373759354 -4.142503778 -2.043806897
C -2.536889333 -3.366451640 -1.646051467
C -2.245661527 1.490001499 1.963208378
C -2.964387829 0.253886974 1.712925801
C 1.229062037 3.039402638 0.385300089
C 0.051322942 3.028130976 1.243204789
C 2.637026651 1.534661166 -1.593505765
C 2.634539909 0.305497251 -2.365019717
C 1.225580920 -3.417075486 2.720812835
C 0.778536367 -2.186642494 3.348219984
C -0.665307712 -2.187414605 3.349907910
C -1.112533693 -3.418330991 2.723577048
C 0.056484640 -4.193870670 2.343029042
C 0.055503321 -4.927452358 1.147377239
C -1.124335027 -4.918639939 0.292295013
C -2.253216476 -4.175462737 0.668613634
C -2.243121002 -3.409440949 1.903689688
C 2.354151861 -3.406974897 1.898183238
C 2.362232915 -4.172991056 0.663123311
C 1.233253937 -4.917400301 0.289497832
C 3.072058715 -2.164985313 1.676368567
C 3.517406122 0.274006290 0.332626950
C 3.071044040 0.257122269 1.705739853
C 0.777364537 0.236684266 3.377884485
C 1.223123347 1.482433344 2.780788651
C 2.351526298 1.492457541 1.957733804
C -2.962815149 -2.168197825 1.683528377
C -0.666700999 0.235899541 3.379597830
C -3.412483808 -2.152377467 0.311650139
C -2.968211339 -3.382802781 -0.318266828
C -0.675679298 -4.902430012 -1.093759167
C 0.781267543 -4.901678422 -1.095469400
C 3.518605053 -2.148682695 0.303472694
C 3.074087658 -3.379581904 -0.325427198
C 2.358783839 2.287364008 0.740987187
C 3.071259442 1.519035858 -0.266456816
C 0.053059972 2.266805157 2.421589011
C -1.115255025 1.481107321 2.783537637
C -2.599894476 -0.964997242 2.357998389
C -1.404774099 -0.974530289 3.223074153
C 1.516353434 -0.972946467 3.219560105
C 2.709381325 -0.962156791 2.351655339
C 3.608872583 -0.928271951 -0.429000426
C 3.150338516 -0.911800386 -1.830519066
C 0.784989656 -0.892457332 -3.546530034
C -0.689487080 -0.893236251 -3.544850262
C -3.050717386 -0.915098174 -1.823228595
C -3.505939170 -0.932086375 -0.420610136
