15
X X X
N -0.052943499 -1.677142468 0.040269414
C 1.215896485 -1.079803506 -0.000594199
N 1.141848064 0.313347826 -0.042658605
C -0.022523613 1.133446715 -0.049773160
C -1.291551789 0.390589902 0.000952656
C -1.244720840 -0.967177693 0.041275343
O 2.262211132 -1.721051729 0.004147031
O 0.085091414 2.359634875 -0.091040826
C -2.574507191 1.178448616 0.003579331
H -3.444631675 0.515007962 0.074614360
H -2.665399772 1.781757689 -0.909864074
H -2.597270798 1.882182813 0.846372927
H -0.048304567 -2.691891596 0.075352172
H 2.035589214 0.802742900 -0.072764330
H -2.143118014 -1.579482478 0.080131909
